
     RDKit          3D

 32 32  0  0  0  0  0  0  0  0999 V2000
    0.7772    1.1318   -1.1382 C   0  0  0  0  0  0  0  0  0  0  0  0
   -1.2036    0.3059   -1.0026 C   0  0  0  0  0  0  0  0  0  0  0  0
   -0.5153    1.4916   -0.4104 C   0  0  0  0  0  0  0  0  0  0  0  0
    0.1215   -0.2259   -1.5426 C   0  0  0  0  0  0  0  0  0  0  0  0
    4.3980    0.3886    0.0563 C   0  0  0  0  0  0  0  0  0  0  0  0
   -3.7207   -1.0944    1.5936 C   0  0  0  0  0  0  0  0  0  0  0  0
    4.8421   -1.0662    0.1359 C   0  0  0  0  0  0  0  0  0  0  0  0
   -4.9627   -0.4471    2.1944 C   0  0  0  0  0  0  0  0  0  0  0  0
    2.0038    1.0046   -0.2748 C   0  0  0  0  0  0  0  0  0  0  0  0
   -1.9048   -0.5901   -0.0146 C   0  0  0  0  0  0  0  0  0  0  0  0
    3.1528    0.5289   -0.7722 C   0  0  0  0  0  0  0  0  0  0  0  0
   -3.0193   -0.1957    0.6145 C   0  0  0  0  0  0  0  0  0  0  0  0
    0.9500    1.7931   -2.0211 H   0  0  0  0  0  0  0  0  0  0  0  0
   -1.8844    0.5935   -1.8402 H   0  0  0  0  0  0  0  0  0  0  0  0
   -0.9481    2.4606   -0.7523 H   0  0  0  0  0  0  0  0  0  0  0  0
   -0.4362    1.4589    0.7032 H   0  0  0  0  0  0  0  0  0  0  0  0
    0.1160   -0.3899   -2.6452 H   0  0  0  0  0  0  0  0  0  0  0  0
    0.5367   -1.1001   -0.9859 H   0  0  0  0  0  0  0  0  0  0  0  0
    4.2640    0.7772    1.0931 H   0  0  0  0  0  0  0  0  0  0  0  0
    5.2043    0.9939   -0.4171 H   0  0  0  0  0  0  0  0  0  0  0  0
   -3.0202   -1.3581    2.4197 H   0  0  0  0  0  0  0  0  0  0  0  0
   -4.0215   -2.0369    1.0800 H   0  0  0  0  0  0  0  0  0  0  0  0
    4.0593   -1.6913    0.6236 H   0  0  0  0  0  0  0  0  0  0  0  0
    5.7741   -1.1438    0.7405 H   0  0  0  0  0  0  0  0  0  0  0  0
    5.0550   -1.4757   -0.8783 H   0  0  0  0  0  0  0  0  0  0  0  0
   -5.7037   -0.1995    1.4001 H   0  0  0  0  0  0  0  0  0  0  0  0
   -5.4455   -1.1494    2.9113 H   0  0  0  0  0  0  0  0  0  0  0  0
   -4.6964    0.4829    2.7470 H   0  0  0  0  0  0  0  0  0  0  0  0
    3.2017    0.2244   -1.8179 H   0  0  0  0  0  0  0  0  0  0  0  0
    1.9543    1.3162    0.7682 H   0  0  0  0  0  0  0  0  0  0  0  0
   -3.4222    0.7977    0.4129 H   0  0  0  0  0  0  0  0  0  0  0  0
   -1.5061   -1.5859    0.1797 H   0  0  0  0  0  0  0  0  0  0  0  0
  1  4  1  0
  1  9  1  0
  1  3  1  0
  1 13  1  0
  2 14  1  0
  2 10  1  0
  2  3  1  0
  2  4  1  0
  3 15  1  0
  3 16  1  0
  4 18  1  0
  4 17  1  0
  5 11  1  0
  5 19  1  0
  5  7  1  0
  5 20  1  0
  6 22  1  0
  6 12  1  0
  6 21  1  0
  6  8  1  0
  7 23  1  0
  7 25  1  0
  7 24  1  0
  8 27  1  0
  8 28  1  0
  8 26  1  0
  9 11  2  3
  9 30  1  0
 10 32  1  0
 10 12  2  3
 11 29  1  0
 12 31  1  0
M  END
