
     RDKit          3D

 32 32  0  0  0  0  0  0  0  0999 V2000
    1.1793    0.3115    0.4497 C   0  0  0  0  0  0  0  0  0  0  0  0
   -0.8477    0.2311    0.0411 C   0  0  0  0  0  0  0  0  0  0  0  0
   -0.0598    0.5080    1.3171 C   0  0  0  0  0  0  0  0  0  0  0  0
    0.3105   -0.6254   -0.3840 C   0  0  0  0  0  0  0  0  0  0  0  0
    4.2598    0.2543   -0.2825 C   0  0  0  0  0  0  0  0  0  0  0  0
   -4.6060   -0.3002   -0.0514 C   0  0  0  0  0  0  0  0  0  0  0  0
    5.4677   -0.5252   -0.7510 C   0  0  0  0  0  0  0  0  0  0  0  0
   -5.6532    0.7720    0.1231 C   0  0  0  0  0  0  0  0  0  0  0  0
    2.3174   -0.3336    1.1335 C   0  0  0  0  0  0  0  0  0  0  0  0
   -2.1457   -0.4283    0.2260 C   0  0  0  0  0  0  0  0  0  0  0  0
    3.3306   -0.7360    0.3556 C   0  0  0  0  0  0  0  0  0  0  0  0
   -3.2505    0.3220    0.1134 C   0  0  0  0  0  0  0  0  0  0  0  0
    1.4386    1.2353   -0.1244 H   0  0  0  0  0  0  0  0  0  0  0  0
   -0.9096    1.1431   -0.5790 H   0  0  0  0  0  0  0  0  0  0  0  0
   -0.2280    1.5385    1.6691 H   0  0  0  0  0  0  0  0  0  0  0  0
   -0.1485   -0.3048    2.0563 H   0  0  0  0  0  0  0  0  0  0  0  0
    0.5577   -0.5667   -1.4661 H   0  0  0  0  0  0  0  0  0  0  0  0
    0.3027   -1.6758   -0.0364 H   0  0  0  0  0  0  0  0  0  0  0  0
    4.5120    1.0900    0.3910 H   0  0  0  0  0  0  0  0  0  0  0  0
    3.8000    0.6998   -1.2017 H   0  0  0  0  0  0  0  0  0  0  0  0
   -4.7514   -1.0632    0.7390 H   0  0  0  0  0  0  0  0  0  0  0  0
   -4.6988   -0.8230   -1.0372 H   0  0  0  0  0  0  0  0  0  0  0  0
    6.1987   -0.5764    0.0819 H   0  0  0  0  0  0  0  0  0  0  0  0
    5.8723   -0.0932   -1.6834 H   0  0  0  0  0  0  0  0  0  0  0  0
    5.1587   -1.5740   -0.9994 H   0  0  0  0  0  0  0  0  0  0  0  0
   -5.7353    1.2998   -0.8625 H   0  0  0  0  0  0  0  0  0  0  0  0
   -6.6216    0.3983    0.4876 H   0  0  0  0  0  0  0  0  0  0  0  0
   -5.2141    1.5188    0.8346 H   0  0  0  0  0  0  0  0  0  0  0  0
    3.1318   -1.6265   -0.2550 H   0  0  0  0  0  0  0  0  0  0  0  0
    2.5073    0.0012    2.1616 H   0  0  0  0  0  0  0  0  0  0  0  0
   -3.1743    1.4093    0.2517 H   0  0  0  0  0  0  0  0  0  0  0  0
   -2.3004   -1.4805    0.4424 H   0  0  0  0  0  0  0  0  0  0  0  0
  1  4  1  0
  1  9  1  0
  1  3  1  0
  1 13  1  0
  2 14  1  0
  2 10  1  0
  2  3  1  0
  2  4  1  0
  3 15  1  0
  3 16  1  0
  4 18  1  0
  4 17  1  0
  5 11  1  0
  5 19  1  0
  5  7  1  0
  5 20  1  0
  6 22  1  0
  6 12  1  0
  6 21  1  0
  6  8  1  0
  7 23  1  0
  7 25  1  0
  7 24  1  0
  8 27  1  0
  8 28  1  0
  8 26  1  0
  9 11  2  3
  9 30  1  0
 10 32  1  0
 10 12  2  3
 11 29  1  0
 12 31  1  0
M  END
